%chk=complex2.chk
%mem=2GB
%nprocshared=10
# opt b3lyp/6-31++g(d,p)

opt_complex2

0 1
 C                  0.00001400    3.53721000    1.24901000
 C                  0.00000000    2.85028400    2.43881000
 C                  0.00001500    2.85066800    0.00000000
 C                  0.00001400    1.42533800    2.46875800
 C                  0.00002800    1.42846200    0.00000000
 C                 -0.00001600    0.71423200    1.23708900
 C                  0.00001400    3.53721000   -1.24901000
 C                  0.00000000    2.85028400   -2.43881000
 C                  0.00001400    1.42533800   -2.46875800
 C                 -0.00001600    0.71423200   -1.23708900
 C                  0.00001600   -0.71423200   -1.23708900
 C                  0.00000700    0.68693000   -3.68782400
 C                 -0.00000700   -0.68693000   -3.68782400
 C                 -0.00001400   -1.42533800   -2.46875800
 C                 -0.00002800   -1.42846200    0.00000000
 C                 -0.00001500   -2.85066800    0.00000000
 C                  0.00000000   -2.85028400   -2.43881000
 C                 -0.00001400   -3.53721000   -1.24901000
 C                 -0.00001400   -3.53721000    1.24901000
 C                  0.00000000   -2.85028400    2.43881000
 C                  0.00001600   -0.71423200    1.23708900
 C                 -0.00001400   -1.42533800    2.46875800
 C                 -0.00000700   -0.68693000    3.68782400
 C                  0.00000700    0.68693000    3.68782400
 H                  0.00002900    4.62408300    1.24670000
 H                  0.00001100    3.39172900    3.38121900
 H                  0.00002900    4.62408300   -1.24670000
 H                  0.00001100    3.39172900   -3.38121900
 H                  0.00000700    1.23235700   -4.62793500
 H                 -0.00000700   -1.23235700   -4.62793500
 H                 -0.00001100   -3.39172900   -3.38121900
 H                 -0.00002900   -4.62408300   -1.24670000
 H                 -0.00002900   -4.62408300    1.24670000
 H                 -0.00001100   -3.39172900    3.38121900
 H                 -0.00000700   -1.23235700    4.62793500
 H                  0.00000700    1.23235700    4.62793500
 C                 -2.41183433   -0.64235479   -0.05818527
 N                 -3.63564403   -1.28544028   -0.01820405
 N                 -2.51248936    0.71188317   -0.26853779
 O                 -1.34799210   -1.22677816    0.08066649
 O                 -1.30327180    1.43524217   -0.32139419
 H                 -1.56756336    2.35377164   -0.47330356
 H                 -3.36833664    1.22991892   -0.38751092
 H                 -3.61131651   -2.28025061    0.13398152
 H                 -4.52761200   -0.83195157   -0.12907892

